// physical parameters
Re = 100
RHO   = 1.0                                         // mass density of fluid (gm/cm^3)
MU    = 0.01                                        // dynamic viscosity of fluid (gm/(cm s))
U_MAX = 1.0                                      // approximate maximum velocity in the entire domain (cm/2)

PI = 3.14159265359
THETA = 0.0

MESH_FILENAME  = "surface_mesh_iim_sideset.e"


// discretization parameters
MAX_LEVELS = 1                                      // maximum number of levels in locally refined grid
REF_RATIO  = 1                                      // refinement ratio between levels
N =16                                 // actual    number of grid cells on coarsest grid level
NFINEST = (REF_RATIO^(MAX_LEVELS - 1))*N            // effective number of grid cells on finest   grid level
x_min = 0
x_max = 8*0.001
y_min = -38*0.001
y_max = -30*0.001
z_min = -1.15782*0.001
z_max = 5.86495*0.001
L = x_max - x_min                                           // channel length (cm)
H = z_max - z_min                                           // domain  height (cm)
DX = 0.1*0.001
D = 2.0

NCELLS_X = int(L/DX) - 1
NCELLS_Y = int((y_max-y_min)/DX) - 1
NCELLS_Z = int(H/DX) - 1 

MFAC = 2.0                                    // ratio of Lagrangian mesh width to Cartesian mesh width for thin structure
ELEM_TYPE = "TRI6"                                 // type of element to use for thin structure discretization
elem_order_thin = "SECOND"                                // finite element order
Yo = H/2
Zo = H/2
Yi = H/2
Zi = H/2
FEEDBACK_FORCER = FALSE

// solver parameters
IB_DELTA_FUNCTION          = "IB_3"            // the type of smoothed delta function to use for Lagrangian-Eulerian interaction
SPLIT_FORCES                 = TRUE              // whether to split interior and boundary forces
USE_PRESSURE_JUMP_CONDITIONS        = TRUE           // whether to impose pressure jumps at fluid-structure interfaces
USE_VELOCITY_JUMP_CONDITIONS        = TRUE         // whether to impose pressure jumps at fluid-structure interfaces
COMPUTE_FLUID_TRACTION       = TRUE              // whether to compute the exterior fluid traction
WSS_CALC_WIDTH 				= 1.05
P_CALC_WIDTH 			   = 1.5
USE_CONSISTENT_MASS_MATRIX = TRUE              // whether to use a consistent or lumped mass matrix
IB_POINT_DENSITY           = 1                    // approximate density of IB quadrature points for Lagrangian-Eulerian interaction
SOLVER_TYPE                = "STAGGERED"            // the fluid solver to use (STAGGERED or COLLOCATED)
START_TIME                 = 0.0e0                  // initial simulation time
END_TIME                   = 15             // final simulation time
GROW_DT                    = 2.0e0                  // growth factor for timesteps
NUM_CYCLES                 = 1                      // number of cycles of fixed-point iteration
CONVECTIVE_TS_TYPE         = "ADAMS_BASHFORTH"      // convective time stepping type
CONVECTIVE_OP_TYPE         = "STABILIZED_PPM"       // convective differencing discretization type
CONVECTIVE_FORM            = "ADVECTIVE"            // how to compute the convective terms
NORMALIZE_PRESSURE         = FALSE                   // whether to explicitly force the pressure to have mean zero
CFL_MAX                    = 0.10                   // maximum CFL number
DT       		   = 0.006125*CFL_MAX*DX        // maximum timestep size
ERROR_ON_DT_CHANGE         = FALSE                   // whether to emit an error message if the time step size changes
VORTICITY_TAGGING          = TRUE                   // whether to tag cells for refinement based on vorticity thresholds
TAG_BUFFER                 = 1                      // size of tag buffer used by grid generation algorithm
REGRID_CFL_INTERVAL        = 2                    // regrid whenever any material point could have moved 0.5 meshwidths since previous regrid
OUTPUT_U                   = TRUE
OUTPUT_P                   = TRUE
OUTPUT_F                   = TRUE
OUTPUT_OMEGA               = TRUE
OUTPUT_DIV_U               = TRUE
ENABLE_LOGGING             = TRUE


//phong option
USE_PHONG_NORMALS = TRUE

// Penalty parameter
KAPPA_S_THIN = 531.072 //0.002/DT^2 //5000 //0.0025/DT^2 //0.018*DX/DT^2 //1000 //4.0*DX/(DT^2)
ETA_S_THIN = 0.0 //4.0e-2/DT


// Parabolic profile
U = "0.0"
V = "0.0"
W = "0.0"
P = "0"



X1_lower = x_min
X1_upper = x_max

P_E = 0


VelocityInitialConditions {

	p_e = P_E
    theta = THETA
    D = D
    w = W
    H = H
    L = L
    X1_lower = X1_lower 
    X1_upper = X1_upper 
    mu = MU
   U_MAX = U_MAX
   function_0 = U
   function_1 = V
   function_2 = W
}


PressureInitialConditions {
    D = D
    L = L
    H = H
    U_MAX = U_MAX
    mu = MU
    p_e = P_E
    theta = THETA
    X1_lower = X1_lower 
    X1_upper = X1_upper 

    function = P
}

/*
VelocityBcCoefs_0 {
    p_e = P_E
    D = D
    L = L
    X1_lower = 0.5*H - 0.5*D 
    X1_upper = X1_lower + D
    mu = MU
    H = H
    U_MAX = U_MAX


    acoef_function_0 = "0"
    acoef_function_1 = "0"
    acoef_function_2 = "1.0"
    acoef_function_3 = "1.0"
    acoef_function_4 = "1.0"
    acoef_function_5 = "1.0"

    bcoef_function_0 = "0"
    bcoef_function_1 = "0"
    bcoef_function_2 = "0.0"
    bcoef_function_3 = "0.0"
    bcoef_function_4 = "0.0"
    bcoef_function_5 = "0.0"

    gcoef_function_0 = "0" 
    gcoef_function_1 = "0" 
    gcoef_function_2 = "0.0"
    gcoef_function_3 = "0.0"
    gcoef_function_4 = "0.0"
    gcoef_function_5 = "0.0"
}


VelocityBcCoefs_1 {

    p_e = P_E
    D = D
    L = L
    X1_lower = X1_lower 
    X1_upper = X1_upper
    mu = MU
    H = H

   acoef_function_0 = "1.0"
   acoef_function_1 = "1.0"
   acoef_function_2 = "0.0"
   acoef_function_3 = "0.0"
   acoef_function_4 = "1.0"
   acoef_function_5 = "1.0"
   
   bcoef_function_0 = "0.0"
   bcoef_function_1 = "0.0"
   bcoef_function_2 = "1.0"
   bcoef_function_3 = "1.0"
   bcoef_function_4 = "0.0"
   bcoef_function_5 = "0.0"

   gcoef_function_0 = "0.0"
   gcoef_function_1 = "0.0"
   gcoef_function_2 = "0.0"
   gcoef_function_3 = "0.0"
   gcoef_function_4 = "0.0"
   gcoef_function_5 = "0.0"
}


VelocityBcCoefs_2 {


   acoef_function_0 = "1.0"
   acoef_function_1 = "1.0"
   acoef_function_2 = "1.0"
   acoef_function_3 = "1.0"
   acoef_function_4 = "0.0"
   acoef_function_5 = "0.0"
   
   bcoef_function_0 = "0.0"
   bcoef_function_1 = "0.0"
   bcoef_function_2 = "0.0"
   bcoef_function_3 = "0.0"
   bcoef_function_4 = "1.0"
   bcoef_function_5 = "1.0"

   gcoef_function_0 = "0.0"
   gcoef_function_1 = "0.0"
   gcoef_function_2 = "0.0"
   gcoef_function_3 = "0.0"
   gcoef_function_4 = "0.0"
   gcoef_function_5 = "0.0"
}
*/
IBHierarchyIntegrator {
   start_time          = START_TIME
   end_time            = END_TIME
   grow_dt             = GROW_DT
   num_cycles          = NUM_CYCLES
   regrid_cfl_interval = REGRID_CFL_INTERVAL
   node_outside_patch_check = 0
   dt_max              = DT
   error_on_dt_change  = ERROR_ON_DT_CHANGE
   enable_logging      = ENABLE_LOGGING
}

IIMethod {
   IB_delta_fcn               = IB_DELTA_FUNCTION
   use_pressure_jump_conditions        = USE_PRESSURE_JUMP_CONDITIONS
   use_velocity_jump_conditions = USE_VELOCITY_JUMP_CONDITIONS
   use_consistent_mass_matrix = USE_CONSISTENT_MASS_MATRIX
   IB_point_density           = IB_POINT_DENSITY
   p_calc_width				   = P_CALC_WIDTH
   wss_calc_width			  = WSS_CALC_WIDTH
   min_ghost_cell_width = 6
   //use_phong_normals            = USE_PHONG_NORMALS
   use_velocity_correction = TRUE
   use_smoothed_normal = TRUE
   smoothed_normal_fe_family = "LAGRANGE"
  smoothed_normal_fe_order = "FIRST"
}


INSStaggeredHierarchyIntegrator {
   mu                            = MU
   rho                           = RHO
   start_time                    = START_TIME
   end_time                      = END_TIME
   grow_dt                       = GROW_DT
   convective_time_stepping_type = CONVECTIVE_TS_TYPE
   convective_op_type            = CONVECTIVE_OP_TYPE
   convective_difference_form    = CONVECTIVE_FORM
   normalize_pressure            = NORMALIZE_PRESSURE
   cfl                           = CFL_MAX
   dt_max                        = DT
   using_vorticity_tagging       = VORTICITY_TAGGING
   vorticity_rel_thresh          = 0.01
   tag_buffer                    = TAG_BUFFER
   output_U                      = OUTPUT_U
   output_P                      = OUTPUT_P
   output_F                      = OUTPUT_F
   output_Omega                  = OUTPUT_OMEGA
   output_Div_U                  = OUTPUT_DIV_U
   enable_logging                = ENABLE_LOGGING

   //convective_op_db {
      //settings for STABILIZED_PPM convective operator
      //width_0 = 4.0*DX
      //width_1 = 4.0*DX
      //width_2 = 4.0*DX
      //width_3 = 4.0*DX
   //}
}

Main {

// log file parameters
   log_file_name               = "IIM_3D.log"
   log_all_nodes               = FALSE

// visualization dump parameters
   viz_writer                  = "VisIt","ExodusII"
   viz_dump_interval           = 1 //int(1.0/DT)
   viz_dump_dirname            = "viz_IIM_3D"
   visit_number_procs_per_file = 1

// restart dump parameters
   restart_dump_interval       = 0
   restart_dump_dirname        = "restart_IIM_3D"

// hierarchy data dump parameters
   data_dump_interval          = 0
   data_dump_dirname           = "hier_data_IIM_3D"

// timer dump parameters
   timer_dump_interval         = 0
}

CartesianGeometry {
   domain_boxes = [ (0, 0, 0), (NCELLS_X, NCELLS_Y, NCELLS_Z) ]
   x_lo = x_min,y_min,z_min
   x_up = x_max,y_max,z_max
   periodic_dimension = 0,0,0
}

GriddingAlgorithm {
   max_levels = MAX_LEVELS
   ratio_to_coarser {
      level_1 = REF_RATIO,REF_RATIO,REF_RATIO
      level_2 = REF_RATIO,REF_RATIO,REF_RATIO
      level_3 = REF_RATIO,REF_RATIO,REF_RATIO
      level_4 = REF_RATIO,REF_RATIO,REF_RATIO
      level_5 = REF_RATIO,REF_RATIO,REF_RATIO
      level_6 = REF_RATIO,REF_RATIO,REF_RATIO
      level_7 = REF_RATIO,REF_RATIO,REF_RATIO
   }
largest_patch_size {
   level_0 = 512,512,512  // all finer levels will use same values as level_0
}
smallest_patch_size {
   level_0 =   8,  8 ,8 // all finer levels will use same values as level_0
}
   efficiency_tolerance = 0.80e0  // min % of tag cells in new patch level
   combine_efficiency   = 0.80e0  // chop box if sum of volumes of smaller boxes < efficiency * vol of large box
}

StandardTagAndInitialize {
   tagging_method = "GRADIENT_DETECTOR"
}

LoadBalancer {
   bin_pack_method     = "SPATIAL"
   max_workload_factor = 1
}

TimerManager{
   print_exclusive = FALSE
   print_total = TRUE
   print_threshold = 0.1

   timer_list = "IBAMR::*::*","IBTK::*::*","*::*::*"
}

BcCoefs {
   p_vein = 0
   ux_proximal_artery = 0
   uy_proximal_artery = 0
   uz_proximal_artery = 1.0
   ux_distal_artery = 0
   uy_distal_artery = 0
   uz_distal_artery = 0.1   
}